[General]
cmdenv-express-mode = true
cmdenv-autoflush = true
cmdenv-status-frequency = 10s
**.cmdenv-log-level = off

image-path = ../../images

network = Highway

##########################################################
#            Simulation parameters                       #
##########################################################
debug-on-errors = true
print-undisposed = true

sim-time-limit = 60s
 
**.scalar-recording = true
**.vector-recording = true

*.playgroundSizeX = 2500m   # >473.11
*.playgroundSizeY = 2500m   # >399.44
*.playgroundSizeZ = 50m


num-rngs = 4

########LLTEEe#########
**.channelControl.pMax = 10W
**.channelControl.alpha = 1.0
**.channelControl.carrierFrequency = 5915e+6Hz



**.lteNic.phy.channelModel = xmldoc("config_channel.xml")
**.lteNic.phy.minDistance = 1 m #Akid
**.feedbackComputation = xmldoc("config_channel.xml")
**.rbAllocationType = "localized"
**.feedbackType = "ALLBANDS"
**.feedbackGeneratorType = "IDEAL"
**.maxHarqRtx = 0
**.deployer.ruRange = 50
**.deployer.ruTxPower = "50,50,50;"
**.deployer.antennaCws = "2;" # !!MACRO + RUS (numRus + 1)
**.deployer.numRbDl = 51
**.deployer.numRbUl = 100
**.numBands = 100
**.fbDelay = 1

**.macDelayDl.statistic-recording = false
**.macThroughputDl.statistic-recording = false
**.macDelayUl.statistic-recording = false
**.macThroughputUl.statistic-recording = false
**.macDelayD2D.statistic-recording = false
**.macThroughputD2D.statistic-recording = false
**.macCellThroughputUl.statistic-recording = false
**.macCellThroughputDl.statistic-recording = false
**.macCellThroughputD2D.statistic-recording = false
**.macCellPacketLossDl.statistic-recording = false
**.macCellPacketLossUl.statistic-recording = false
**.macCellPacketLossD2D.statistic-recording = false
**.macPacketLossUl.statistic-recording = false
**.macPacketLossDl.statistic-recording = false
**.macPacketLossD2D.statistic-recording = false
**.macBufferOverFlowDl.statistic-recording = false
**.macBufferOverFlowUl.statistic-recording = false
**.macBufferOverFlowD2D.statistic-recording = false
**.harqErrorRateUl.statistic-recording = false
**.harqErrorRateDl.statistic-recording = false
**.harqErrorRateD2D.statistic-recording = false
**.harqErrorRate_1st_Ul.statistic-recording = false
**.harqErrorRate_1st_Dl.statistic-recording = false
**.harqErrorRate_1st_D2D.statistic-recording = false
**.harqErrorRate_2nd_Ul.statistic-recording = false
**.harqErrorRate_2nd_D2D.statistic-recording = false
**.harqErrorRate_3rd_Ul.statistic-recording = false
**.harqErrorRate_3rd_Dl.statistic-recording = false
**.harqErrorRate_3rd_D2D.statistic-recording = false
**.harqErrorRate_4th_Ul.statistic-recording = false
**.harqErrorRate_4th_Dl.statistic-recording = false
**.harqErrorRate_4th_D2D.statistic-recording = false
**.receivedPacketFromUpperLayer.statistic-recording = false
**.receivedPacketFromLowerLayer.statistic-recording = false
**.sentPacketToUpperLayer.statistic-recording = false
**.sentPacketToLowerLayer.statistic-recording = false
**.measuredItbs.statistic-recording = false
**.pdcpdrop0.statistic-recording = false
**.pdcpdrop1.statistic-recording = false
**.pdcpdrop2.statistic-recording = false
**.pdcpdrop3.statistic-recording = false
**.averageCqiD2D.statistic-recording = true
**.averageCqiDl.statistic-recording = true
**.averageCqiUl.statistic-recording = true



##########################################################
#            TraCIScenarioManager parameters             #
##########################################################
*.manager.moduleType = "lte.simulations.Mode4.CarNonIp"
*.manager.moduleName = "carNoIp"
*.manager.updateInterval = 0.1s
*.manager.host = "localhost"
*.manager.port = 9999
*.manager.autoShutdown = true
#*.manager.launchConfig = xmldoc("town05/town05.launchd.xml")
*.manager.launchConfig = xmldoc("intersections/intersection.launchd.xml")

#*.manager.moduleTypeRsu = "lte.simulations.Mode4.RSU"
#*.manager.moduleNameRsu = "rsu"
#*.manager.addRsu = true 
#*.manager.rsuType = "rsu"


*.carNoIp[*].veinsmobility.x = 0
*.carNoIp[*].veinsmobility.y = 0
*.carNoIp[*].veinsmobility.z = 0

*.rsu[*].veinsmobility.x = 1000
*.rsu[*].veinsmobility.y = 1000
*.rsu[*].veinsmobility.z = 5

#*.rsu[*].veinsmobility.x = 300
#*.rsu[*].veinsmobility.y = 200
#*.rsu[*].veinsmobility.z = 5

**.deployer.positionUpdateInterval = 0.01s
**.binder.d2dCapableUes = "carNoIp[*],rsu[*]"

*.numRsu = 1
*.carNoIp[*].veinsmobilityType = "org.car2x.veins.modules.mobility.traci.TraCIMobility"
#*.rsu[*].veinsmobilityType = "org.car2x.veins.modules.mobility.traci.TraCIMobility"


[Config Base]
*.carNoIp[*].d2dCapable = true
*.carNoIp[*].mode4D2D = true
**.amcMode = "D2D"
*.carNoIp[*].applType = "Mode4App"
*.carNoIp[*].appl.packetSize = 2300
*.carNoIp[*].appl.certInterval = 5
*.carNoIp[*].nicType = "LteNicVUeMode4"
*.carNoIp[*].lteNic.d2dCapable = true
*.carNoIp[*].lteNic.pdcpRrc.ipBased = false
*.carNoIp[*].lteNic.rlc.ipBased = false
*.carNoIp[*].lteNic.mac.subchannelSize = 10
*.carNoIp[*].lteNic.mac.numSubchannels = 10
*.carNoIp[*].lteNic.mac.probResourceKeep = 0.8
*.carNoIp[*].lteNic.mac.useCBR = true
*.carNoIp[*].lteNic.mac.crLimit = true
*.carNoIp[*].lteNic.mac.rriLookup = false
*.carNoIp[*].lteNic.mac.dccMechanism = false
*.carNoIp[*].lteNic.mac.packetDropping = true
*.carNoIp[*].lteNic.mac.reselectAfter = 6
*.carNoIp[*].lteNic.mac.adjacencyPSCCHPSSCH = true
*.carNoIp[*].lteNic.rlc.um.scenario3gpp = false
*.carNoIp[*].lteNic.phy.subchannelSize = 10
*.carNoIp[*].lteNic.phy.numSubchannels = 10
*.carNoIp[*].lteNic.phy.selectionWindowStartingSubframe = 1
*.carNoIp[*].lteNic.phy.adjacencyPSCCHPSSCH = true
*.carNoIp[*].lteNic.phy.pStep = 100
*.carNoIp[*].lteNic.phy.thresholdRSSI = 9
*.carNoIp[*].ueTxPower = 23
*.carNoIp[*].lteNic.phy.d2dTxPower = 23
*.carNoIp[*].appl.startTime = 0.6s         # when the first packet is created
*.carNoIp[*].appl.sendInterval = 0.1s       # every 100 ms (adjust to your app)


# RSU Specific Settings

*.rsu[*].d2dCapable = true
*.rsu[*].mode4D2D = true
*.rsu[*].applType = "Mode4RSUApp"
*.rsu[*].appl.packetSize = 2300
*.rsu[*].nicType = "LteNicVUeMode4"
*.rsu[*].lteNic.d2dCapable = true
*.rsu[*].lteNic.pdcpRrc.ipBased = false
*.rsu[*].lteNic.rlc.ipBased = false
*.rsu[*].lteNic.mac.subchannelSize = 10
*.rsu[*].lteNic.mac.numSubchannels = 10
*.rsu[*].lteNic.mac.probResourceKeep = 0.8
*.rsu[*].lteNic.mac.useCBR = true
*.rsu[*].lteNic.mac.crLimit = true
*.rsu[*].lteNic.mac.rriLookup = false
*.rsu[*].lteNic.mac.dccMechanism = false
*.rsu[*].lteNic.mac.packetDropping = true
*.rsu[*].lteNic.mac.reselectAfter = 6
*.rsu[*].lteNic.mac.adjacencyPSCCHPSSCH = true
*.rsu[*].lteNic.rlc.um.scenario3gpp = false
*.rsu[*].lteNic.phy.subchannelSize = 10
*.rsu[*].lteNic.phy.numSubchannels = 10
*.rsu[*].lteNic.phy.selectionWindowStartingSubframe = 1
*.rsu[*].lteNic.phy.adjacencyPSCCHPSSCH = true
*.rsu[*].lteNic.phy.pStep = 100
*.rsu[*].lteNic.phy.thresholdRSSI = 9
*.rsu[*].ueTxPower = 23
*.rsu[*].lteNic.phy.d2dTxPower = 23
*.rsu[*].appl.startTime = 0.6s         # when the first packet is created
*.rsu[*].appl.sendInterval = 0.1
*.rsu[*].appl.startTime = 0.3s

# RSU server socket
*.rsu[*].appl.socketPort = 9011
*.rsu[*].appl.socketPollInterval = 0.05s
*.rsu[*].appl.slDurationMs = 10     # keep the safe value you found works
*.rsu[*].appl.slPriority = 3
*.rsu[*].appl.slLcid = 5


**.usePreconfiguredTxParams = true
**.lteNic.mac.txConfig = xmldoc("sidelink_configuration.xml")



##########################################################
#     24 Evaluation Scenarios                            #
#     6 LOS levels (A-F) x 2 channels x 2 algorithms    #
#     Each runs for 5 minutes (300 s)                    #
#     Naming: <N>_<Algo>_<LOS>_<Channel>                 #
##########################################################

# ── ECDSA, LOS A-F, LOS channel ──

[Config _1_ECDSA_A_LOS]
extends = Base
sim-time-limit = 300s
*.carNoIp[*].appl.cryptoAlgo = "ecdsa"
*.manager.launchConfig = xmldoc("intersections/intersection_LOS_A.launchd.xml")

[Config _2_ECDSA_A_NLOS]
extends = Base
sim-time-limit = 300s
*.carNoIp[*].appl.cryptoAlgo = "ecdsa"
*.manager.launchConfig = xmldoc("intersections/intersection_LOS_A.launchd.xml")
**.lteNic.phy.channelModel = xmldoc("config_channel_nlos.xml")
**.feedbackComputation = xmldoc("config_channel_nlos.xml")

[Config _3_ECDSA_B_LOS]
extends = Base
sim-time-limit = 300s
*.carNoIp[*].appl.cryptoAlgo = "ecdsa"
*.manager.launchConfig = xmldoc("intersections/intersection_LOS_B.launchd.xml")

[Config _4_ECDSA_B_NLOS]
extends = Base
sim-time-limit = 300s
*.carNoIp[*].appl.cryptoAlgo = "ecdsa"
*.manager.launchConfig = xmldoc("intersections/intersection_LOS_B.launchd.xml")
**.lteNic.phy.channelModel = xmldoc("config_channel_nlos.xml")
**.feedbackComputation = xmldoc("config_channel_nlos.xml")

[Config _5_ECDSA_C_LOS]
extends = Base
sim-time-limit = 300s
*.carNoIp[*].appl.cryptoAlgo = "ecdsa"
*.manager.launchConfig = xmldoc("intersections/intersection_LOS_C.launchd.xml")

[Config _6_ECDSA_C_NLOS]
extends = Base
sim-time-limit = 300s
*.carNoIp[*].appl.cryptoAlgo = "ecdsa"
*.manager.launchConfig = xmldoc("intersections/intersection_LOS_C.launchd.xml")
**.lteNic.phy.channelModel = xmldoc("config_channel_nlos.xml")
**.feedbackComputation = xmldoc("config_channel_nlos.xml")

[Config _7_ECDSA_D_LOS]
extends = Base
sim-time-limit = 300s
*.carNoIp[*].appl.cryptoAlgo = "ecdsa"
*.manager.launchConfig = xmldoc("intersections/intersection_LOS_D.launchd.xml")

[Config _8_ECDSA_D_NLOS]
extends = Base
sim-time-limit = 300s
*.carNoIp[*].appl.cryptoAlgo = "ecdsa"
*.manager.launchConfig = xmldoc("intersections/intersection_LOS_D.launchd.xml")
**.lteNic.phy.channelModel = xmldoc("config_channel_nlos.xml")
**.feedbackComputation = xmldoc("config_channel_nlos.xml")

[Config _9_ECDSA_E_LOS]
extends = Base
sim-time-limit = 300s
*.carNoIp[*].appl.cryptoAlgo = "ecdsa"
*.manager.launchConfig = xmldoc("intersections/intersection_LOS_E.launchd.xml")

[Config _10_ECDSA_E_NLOS]
extends = Base
sim-time-limit = 300s
*.carNoIp[*].appl.cryptoAlgo = "ecdsa"
*.manager.launchConfig = xmldoc("intersections/intersection_LOS_E.launchd.xml")
**.lteNic.phy.channelModel = xmldoc("config_channel_nlos.xml")
**.feedbackComputation = xmldoc("config_channel_nlos.xml")

[Config _11_ECDSA_F_LOS]
extends = Base
sim-time-limit = 300s
*.carNoIp[*].appl.cryptoAlgo = "ecdsa"
*.manager.launchConfig = xmldoc("intersections/intersection_LOS_F.launchd.xml")

[Config _12_ECDSA_F_NLOS]
extends = Base
sim-time-limit = 300s
*.carNoIp[*].appl.cryptoAlgo = "ecdsa"
*.manager.launchConfig = xmldoc("intersections/intersection_LOS_F.launchd.xml")
**.lteNic.phy.channelModel = xmldoc("config_channel_nlos.xml")
**.feedbackComputation = xmldoc("config_channel_nlos.xml")

# ── Falcon-512, LOS A-F, LOS/NLOS channel ──

[Config _13_Falcon_A_LOS]
extends = Base
sim-time-limit = 300s
*.carNoIp[*].appl.cryptoAlgo = "falcon-512"
*.manager.launchConfig = xmldoc("intersections/intersection_LOS_A.launchd.xml")

[Config _14_Falcon_A_NLOS]
extends = Base
sim-time-limit = 300s
*.carNoIp[*].appl.cryptoAlgo = "falcon-512"
*.manager.launchConfig = xmldoc("intersections/intersection_LOS_A.launchd.xml")
**.lteNic.phy.channelModel = xmldoc("config_channel_nlos.xml")
**.feedbackComputation = xmldoc("config_channel_nlos.xml")

[Config _15_Falcon_B_LOS]
extends = Base
sim-time-limit = 300s
*.carNoIp[*].appl.cryptoAlgo = "falcon-512"
*.manager.launchConfig = xmldoc("intersections/intersection_LOS_B.launchd.xml")

[Config _16_Falcon_B_NLOS]
extends = Base
sim-time-limit = 300s
*.carNoIp[*].appl.cryptoAlgo = "falcon-512"
*.manager.launchConfig = xmldoc("intersections/intersection_LOS_B.launchd.xml")
**.lteNic.phy.channelModel = xmldoc("config_channel_nlos.xml")
**.feedbackComputation = xmldoc("config_channel_nlos.xml")

[Config _17_Falcon_C_LOS]
extends = Base
sim-time-limit = 300s
*.carNoIp[*].appl.cryptoAlgo = "falcon-512"
*.manager.launchConfig = xmldoc("intersections/intersection_LOS_C.launchd.xml")

[Config _18_Falcon_C_NLOS]
extends = Base
sim-time-limit = 300s
*.carNoIp[*].appl.cryptoAlgo = "falcon-512"
*.manager.launchConfig = xmldoc("intersections/intersection_LOS_C.launchd.xml")
**.lteNic.phy.channelModel = xmldoc("config_channel_nlos.xml")
**.feedbackComputation = xmldoc("config_channel_nlos.xml")

[Config _19_Falcon_D_LOS]
extends = Base
sim-time-limit = 300s
*.carNoIp[*].appl.cryptoAlgo = "falcon-512"
*.manager.launchConfig = xmldoc("intersections/intersection_LOS_D.launchd.xml")

[Config _20_Falcon_D_NLOS]
extends = Base
sim-time-limit = 300s
*.carNoIp[*].appl.cryptoAlgo = "falcon-512"
*.manager.launchConfig = xmldoc("intersections/intersection_LOS_D.launchd.xml")
**.lteNic.phy.channelModel = xmldoc("config_channel_nlos.xml")
**.feedbackComputation = xmldoc("config_channel_nlos.xml")

[Config _21_Falcon_E_LOS]
extends = Base
sim-time-limit = 300s
*.carNoIp[*].appl.cryptoAlgo = "falcon-512"
*.manager.launchConfig = xmldoc("intersections/intersection_LOS_E.launchd.xml")

[Config _22_Falcon_E_NLOS]
extends = Base
sim-time-limit = 300s
*.carNoIp[*].appl.cryptoAlgo = "falcon-512"
*.manager.launchConfig = xmldoc("intersections/intersection_LOS_E.launchd.xml")
**.lteNic.phy.channelModel = xmldoc("config_channel_nlos.xml")
**.feedbackComputation = xmldoc("config_channel_nlos.xml")

[Config _23_Falcon_F_LOS]
extends = Base
sim-time-limit = 300s
*.carNoIp[*].appl.cryptoAlgo = "falcon-512"
*.manager.launchConfig = xmldoc("intersections/intersection_LOS_F.launchd.xml")

[Config _24_Falcon_F_NLOS]
extends = Base
sim-time-limit = 300s
*.carNoIp[*].appl.cryptoAlgo = "falcon-512"
*.manager.launchConfig = xmldoc("intersections/intersection_LOS_F.launchd.xml")
**.lteNic.phy.channelModel = xmldoc("config_channel_nlos.xml")
**.feedbackComputation = xmldoc("config_channel_nlos.xml")

