<routes>
    <vType id="car" accel="2.6" decel="4.5" length="5" maxSpeed="20.12"/>

    <!-- From North: straight, left, right -->
    <route id="route_N_S" edges="N_to_C C_to_S"/>
    <route id="route_N_E" edges="N_to_C C_to_E"/>
    <route id="route_N_W" edges="N_to_C C_to_W"/>

    <!-- From South: straight, left, right -->
    <route id="route_S_N" edges="S_to_C C_to_N"/>
    <route id="route_S_W" edges="S_to_C C_to_W"/>
    <route id="route_S_E" edges="S_to_C C_to_E"/>

    <!-- From East: straight, left, right -->
    <route id="route_E_W" edges="E_to_C C_to_W"/>
    <route id="route_E_S" edges="E_to_C C_to_S"/>
    <route id="route_E_N" edges="E_to_C C_to_N"/>

    <!-- From West: straight, left, right -->
    <route id="route_W_E" edges="W_to_C C_to_E"/>
    <route id="route_W_N" edges="W_to_C C_to_N"/>
    <route id="route_W_S" edges="W_to_C C_to_S"/>

    <!-- CONGESTION SCENARIO: 300 vehicles burst spawn -->
    <!-- Higher than 200-vehicle scenario to create more congestion -->
    <!-- Spawn over 3 seconds to allow placement -->

    <!-- North approach: 60 straight + 7 left + 8 right = 75 vehicles -->
    <flow id="flow_N_S" type="car" route="route_N_S"
          begin="0" end="3" number="60" departLane="best" departPos="random_free" departSpeed="max"/>
    <flow id="flow_N_E" type="car" route="route_N_E"
          begin="0" end="3" number="7" departLane="best" departPos="random_free" departSpeed="max"/>
    <flow id="flow_N_W" type="car" route="route_N_W"
          begin="0" end="3" number="8" departLane="best" departPos="random_free" departSpeed="max"/>

    <!-- South approach: 60 straight + 8 left + 7 right = 75 vehicles -->
    <flow id="flow_S_N" type="car" route="route_S_N"
          begin="0" end="3" number="60" departLane="best" departPos="random_free" departSpeed="max"/>
    <flow id="flow_S_W" type="car" route="route_S_W"
          begin="0" end="3" number="8" departLane="best" departPos="random_free" departSpeed="max"/>
    <flow id="flow_S_E" type="car" route="route_S_E"
          begin="0" end="3" number="7" departLane="best" departPos="random_free" departSpeed="max"/>

    <!-- East approach: 60 straight + 8 left + 7 right = 75 vehicles -->
    <flow id="flow_E_W" type="car" route="route_E_W"
          begin="0" end="3" number="60" departLane="best" departPos="random_free" departSpeed="max"/>
    <flow id="flow_E_S" type="car" route="route_E_S"
          begin="0" end="3" number="8" departLane="best" departPos="random_free" departSpeed="max"/>
    <flow id="flow_E_N" type="car" route="route_E_N"
          begin="0" end="3" number="7" departLane="best" departPos="random_free" departSpeed="max"/>

    <!-- West approach: 60 straight + 7 left + 8 right = 75 vehicles -->
    <flow id="flow_W_E" type="car" route="route_W_E"
          begin="0" end="3" number="60" departLane="best" departPos="random_free" departSpeed="max"/>
    <flow id="flow_W_N" type="car" route="route_W_N"
          begin="0" end="3" number="7" departLane="best" departPos="random_free" departSpeed="max"/>
    <flow id="flow_W_S" type="car" route="route_W_S"
          begin="0" end="3" number="8" departLane="best" departPos="random_free" departSpeed="max"/>

</routes>
