<?xml version="1.0" encoding="UTF-8"?>

<!-- generated on 2025-07-29 18:54:29 by Eclipse SUMO netconvert Version 1.11.0
<configuration xmlns:xsi="http://www.w3.org/2001/XMLSchema-instance" xsi:noNamespaceSchemaLocation="http://sumo.dlr.de/xsd/netconvertConfiguration.xsd">

    <input>
        <node-files value="intersection.nod.xml"/>
        <edge-files value="intersection.edg.xml"/>
    </input>

    <output>
        <output-file value="intersection.net.xml~"/>
    </output>

    <report>
        <aggregate-warnings value="5"/>
    </report>

</configuration>
-->

<net version="1.9" junctionCornerDetail="5" limitTurnSpeed="5.50" xmlns:xsi="http://www.w3.org/2001/XMLSchema-instance" xsi:noNamespaceSchemaLocation="http://sumo.dlr.de/xsd/net_file.xsd">

    <location netOffset="1000.00,1000.00" convBoundary="0.00,0.00,2000.00,2000.00" origBoundary="-1000.00,-1000.00,1000.00,1000.00" projParameter="!"/>

    <edge id=":center_0" function="internal">
        <lane id=":center_0_0" index="0" speed="6.51" length="9.03" shape="995.20,1010.40 994.85,1007.95 993.80,1006.20 992.05,1005.15 989.60,1004.80"/>
    </edge>
    <edge id=":center_1" function="internal">
        <lane id=":center_1_0" index="0" speed="20.12" length="20.80" shape="995.20,1010.40 995.20,989.60"/>
        <lane id=":center_1_1" index="1" speed="20.12" length="20.80" shape="998.40,1010.40 998.40,989.60"/>
    </edge>
    <edge id=":center_3" function="internal">
        <lane id=":center_3_0" index="0" speed="9.26" length="6.96" shape="998.40,1010.40 999.15,1005.15 1000.00,1003.73"/>
    </edge>
    <edge id=":center_4" function="internal">
        <lane id=":center_4_0" index="0" speed="3.65" length="2.34" shape="998.40,1010.40 999.20,1009.20 1000.00,1008.80"/>
    </edge>
    <edge id=":center_20" function="internal">
        <lane id=":center_20_0" index="0" speed="9.26" length="12.40" shape="1000.00,1003.73 1001.40,1001.40 1005.15,999.15 1010.40,998.40"/>
    </edge>
    <edge id=":center_21" function="internal">
        <lane id=":center_21_0" index="0" speed="3.65" length="2.34" shape="1000.00,1008.80 1000.80,1009.20 1001.60,1010.40"/>
    </edge>
    <edge id=":center_5" function="internal">
        <lane id=":center_5_0" index="0" speed="6.51" length="9.03" shape="1010.40,1004.80 1007.95,1005.15 1006.20,1006.20 1005.15,1007.95 1004.80,1010.40"/>
    </edge>
    <edge id=":center_6" function="internal">
        <lane id=":center_6_0" index="0" speed="20.12" length="20.80" shape="1010.40,1004.80 989.60,1004.80"/>
        <lane id=":center_6_1" index="1" speed="20.12" length="20.80" shape="1010.40,1001.60 989.60,1001.60"/>
    </edge>
    <edge id=":center_8" function="internal">
        <lane id=":center_8_0" index="0" speed="9.26" length="6.96" shape="1010.40,1001.60 1005.15,1000.85 1003.73,1000.00"/>
    </edge>
    <edge id=":center_9" function="internal">
        <lane id=":center_9_0" index="0" speed="3.65" length="2.34" shape="1010.40,1001.60 1009.20,1000.80 1008.80,1000.00"/>
    </edge>
    <edge id=":center_22" function="internal">
        <lane id=":center_22_0" index="0" speed="9.26" length="12.40" shape="1003.73,1000.00 1001.40,998.60 999.15,994.85 998.40,989.60"/>
    </edge>
    <edge id=":center_23" function="internal">
        <lane id=":center_23_0" index="0" speed="3.65" length="2.34" shape="1008.80,1000.00 1009.20,999.20 1010.40,998.40"/>
    </edge>
    <edge id=":center_10" function="internal">
        <lane id=":center_10_0" index="0" speed="6.51" length="9.03" shape="1004.80,989.60 1005.15,992.05 1006.20,993.80 1007.95,994.85 1010.40,995.20"/>
    </edge>
    <edge id=":center_11" function="internal">
        <lane id=":center_11_0" index="0" speed="20.12" length="20.80" shape="1004.80,989.60 1004.80,1010.40"/>
        <lane id=":center_11_1" index="1" speed="20.12" length="20.80" shape="1001.60,989.60 1001.60,1010.40"/>
    </edge>
    <edge id=":center_13" function="internal">
        <lane id=":center_13_0" index="0" speed="9.26" length="6.96" shape="1001.60,989.60 1000.85,994.85 1000.00,996.27"/>
    </edge>
    <edge id=":center_14" function="internal">
        <lane id=":center_14_0" index="0" speed="3.65" length="2.34" shape="1001.60,989.60 1000.80,990.80 1000.00,991.20"/>
    </edge>
    <edge id=":center_24" function="internal">
        <lane id=":center_24_0" index="0" speed="9.26" length="12.40" shape="1000.00,996.27 998.60,998.60 994.85,1000.85 989.60,1001.60"/>
    </edge>
    <edge id=":center_25" function="internal">
        <lane id=":center_25_0" index="0" speed="3.65" length="2.34" shape="1000.00,991.20 999.20,990.80 998.40,989.60"/>
    </edge>
    <edge id=":center_15" function="internal">
        <lane id=":center_15_0" index="0" speed="6.51" length="9.03" shape="989.60,995.20 992.05,994.85 993.80,993.80 994.85,992.05 995.20,989.60"/>
    </edge>
    <edge id=":center_16" function="internal">
        <lane id=":center_16_0" index="0" speed="20.12" length="20.80" shape="989.60,995.20 1010.40,995.20"/>
        <lane id=":center_16_1" index="1" speed="20.12" length="20.80" shape="989.60,998.40 1010.40,998.40"/>
    </edge>
    <edge id=":center_18" function="internal">
        <lane id=":center_18_0" index="0" speed="9.26" length="6.96" shape="989.60,998.40 994.85,999.15 996.27,1000.00"/>
    </edge>
    <edge id=":center_19" function="internal">
        <lane id=":center_19_0" index="0" speed="3.65" length="2.34" shape="989.60,998.40 990.80,999.20 991.20,1000.00"/>
    </edge>
    <edge id=":center_26" function="internal">
        <lane id=":center_26_0" index="0" speed="9.26" length="12.40" shape="996.27,1000.00 998.60,1001.40 1000.85,1005.15 1001.60,1010.40"/>
    </edge>
    <edge id=":center_27" function="internal">
        <lane id=":center_27_0" index="0" speed="3.65" length="2.34" shape="991.20,1000.00 990.80,1000.80 989.60,1001.60"/>
    </edge>
    <edge id=":east_0" function="internal">
        <lane id=":east_0_0" index="0" speed="3.65" length="4.67" shape="2000.00,998.40 2001.20,999.20 2001.60,1000.00 2001.20,1000.80 2000.00,1001.60"/>
    </edge>
    <edge id=":north_0" function="internal">
        <lane id=":north_0_0" index="0" speed="3.65" length="4.67" shape="1001.60,2000.00 1000.80,2001.20 1000.00,2001.60 999.20,2001.20 998.40,2000.00"/>
    </edge>
    <edge id=":south_0" function="internal">
        <lane id=":south_0_0" index="0" speed="3.65" length="4.67" shape="998.40,0.00 999.20,-1.20 1000.00,-1.60 1000.80,-1.20 1001.60,0.00"/>
    </edge>
    <edge id=":west_0" function="internal">
        <lane id=":west_0_0" index="0" speed="3.65" length="4.67" shape="0.00,1001.60 -1.20,1000.80 -1.60,1000.00 -1.20,999.20 0.00,998.40"/>
    </edge>

    <edge id="C_to_E" from="center" to="east" priority="-1">
        <lane id="C_to_E_0" index="0" speed="20.12" length="989.60" shape="1010.40,995.20 2000.00,995.20"/>
        <lane id="C_to_E_1" index="1" speed="20.12" length="989.60" shape="1010.40,998.40 2000.00,998.40"/>
    </edge>
    <edge id="C_to_N" from="center" to="north" priority="-1">
        <lane id="C_to_N_0" index="0" speed="20.12" length="989.60" shape="1004.80,1010.40 1004.80,2000.00"/>
        <lane id="C_to_N_1" index="1" speed="20.12" length="989.60" shape="1001.60,1010.40 1001.60,2000.00"/>
    </edge>
    <edge id="C_to_S" from="center" to="south" priority="-1">
        <lane id="C_to_S_0" index="0" speed="20.12" length="989.60" shape="995.20,989.60 995.20,0.00"/>
        <lane id="C_to_S_1" index="1" speed="20.12" length="989.60" shape="998.40,989.60 998.40,0.00"/>
    </edge>
    <edge id="C_to_W" from="center" to="west" priority="-1">
        <lane id="C_to_W_0" index="0" speed="20.12" length="989.60" shape="989.60,1004.80 0.00,1004.80"/>
        <lane id="C_to_W_1" index="1" speed="20.12" length="989.60" shape="989.60,1001.60 0.00,1001.60"/>
    </edge>
    <edge id="E_to_C" from="east" to="center" priority="-1">
        <lane id="E_to_C_0" index="0" speed="20.12" length="989.60" shape="2000.00,1004.80 1010.40,1004.80"/>
        <lane id="E_to_C_1" index="1" speed="20.12" length="989.60" shape="2000.00,1001.60 1010.40,1001.60"/>
    </edge>
    <edge id="N_to_C" from="north" to="center" priority="-1">
        <lane id="N_to_C_0" index="0" speed="20.12" length="989.60" shape="995.20,2000.00 995.20,1010.40"/>
        <lane id="N_to_C_1" index="1" speed="20.12" length="989.60" shape="998.40,2000.00 998.40,1010.40"/>
    </edge>
    <edge id="S_to_C" from="south" to="center" priority="-1">
        <lane id="S_to_C_0" index="0" speed="20.12" length="989.60" shape="1004.80,0.00 1004.80,989.60"/>
        <lane id="S_to_C_1" index="1" speed="20.12" length="989.60" shape="1001.60,0.00 1001.60,989.60"/>
    </edge>
    <edge id="W_to_C" from="west" to="center" priority="-1">
        <lane id="W_to_C_0" index="0" speed="20.12" length="989.60" shape="0.00,995.20 989.60,995.20"/>
        <lane id="W_to_C_1" index="1" speed="20.12" length="989.60" shape="0.00,998.40 989.60,998.40"/>
    </edge>

    <tlLogic id="center" type="static" programID="0" offset="0">
        <phase duration="17" state="GGGggrrrrrGGGggrrrrr"/>
        <phase duration="3"  state="yyyyyrrrrryyyyyrrrrr"/>
        <phase duration="17" state="rrrrrGGGggrrrrrGGGgg"/>
        <phase duration="3"  state="rrrrryyyyyrrrrryyyyy"/>
    </tlLogic>

    <junction id="center" type="traffic_light" x="1000.00" y="1000.00" incLanes="N_to_C_0 N_to_C_1 E_to_C_0 E_to_C_1 S_to_C_0 S_to_C_1 W_to_C_0 W_to_C_1" intLanes=":center_0_0 :center_1_0 :center_1_1 :center_20_0 :center_21_0 :center_5_0 :center_6_0 :center_6_1 :center_22_0 :center_23_0 :center_10_0 :center_11_0 :center_11_1 :center_24_0 :center_25_0 :center_15_0 :center_16_0 :center_16_1 :center_26_0 :center_27_0" shape="993.60,1010.40 1006.40,1010.40 1006.84,1008.18 1007.40,1007.40 1008.18,1006.84 1009.18,1006.51 1010.40,1006.40 1010.40,993.60 1008.18,993.16 1007.40,992.60 1006.84,991.82 1006.51,990.82 1006.40,989.60 993.60,989.60 993.16,991.82 992.60,992.60 991.82,993.16 990.82,993.49 989.60,993.60 989.60,1006.40 991.82,1006.84 992.60,1007.40 993.16,1008.18 993.49,1009.18">
        <request index="0"  response="00000000000000000000" foes="00000000000011000000" cont="0"/>
        <request index="1"  response="01000000000100000000" foes="01111110000111000000" cont="0"/>
        <request index="2"  response="01000000000100000000" foes="01111110000111000000" cont="0"/>
        <request index="3"  response="01000001100100000000" foes="01110001101111000000" cont="1"/>
        <request index="4"  response="01000001100000000000" foes="01000001100000000000" cont="1"/>
        <request index="5"  response="00000001100000000000" foes="00000001100000000000" cont="0"/>
        <request index="6"  response="00000011100000001111" foes="11000011100000001111" cont="0"/>
        <request index="7"  response="00000011100000001111" foes="11000011100000001111" cont="0"/>
        <request index="8"  response="00110011100000001110" foes="00110111100000001110" cont="1"/>
        <request index="9"  response="00110000000000001000" foes="00110000000000001000" cont="1"/>
        <request index="10" response="00000000000000000000" foes="00110000000000000000" cont="0"/>
        <request index="11" response="01000000000100000000" foes="01110000000111111000" cont="0"/>
        <request index="12" response="01000000000100000000" foes="01110000000111111000" cont="0"/>
        <request index="13" response="01000000000100000110" foes="11110000000111000110" cont="1"/>
        <request index="14" response="00000000000100000110" foes="00000000000100000110" cont="1"/>
        <request index="15" response="00000000000000000110" foes="00000000000000000110" cont="0"/>
        <request index="16" response="00000011110000001110" foes="00000011111100001110" cont="0"/>
        <request index="17" response="00000011110000001110" foes="00000011111100001110" cont="0"/>
        <request index="18" response="00000011100011001110" foes="00000011100011011110" cont="1"/>
        <request index="19" response="00000010000011000000" foes="00000010000011000000" cont="1"/>
    </junction>
    <junction id="east" type="priority" x="2000.00" y="1000.00" incLanes="C_to_E_0 C_to_E_1" intLanes=":east_0_0" shape="2000.00,1000.00 2000.00,993.60 2000.00,1000.00">
        <request index="0" response="0" foes="0" cont="0"/>
    </junction>
    <junction id="north" type="priority" x="1000.00" y="2000.00" incLanes="C_to_N_0 C_to_N_1" intLanes=":north_0_0" shape="1000.00,2000.00 1006.40,2000.00 1000.00,2000.00">
        <request index="0" response="0" foes="0" cont="0"/>
    </junction>
    <junction id="south" type="priority" x="1000.00" y="0.00" incLanes="C_to_S_0 C_to_S_1" intLanes=":south_0_0" shape="1000.00,0.00 993.60,0.00 1000.00,0.00">
        <request index="0" response="0" foes="0" cont="0"/>
    </junction>
    <junction id="west" type="priority" x="0.00" y="1000.00" incLanes="C_to_W_0 C_to_W_1" intLanes=":west_0_0" shape="0.00,1000.00 0.00,1006.40 0.00,1000.00">
        <request index="0" response="0" foes="0" cont="0"/>
    </junction>

    <junction id=":center_20_0" type="internal" x="1000.00" y="1003.73" incLanes=":center_3_0 S_to_C_0 S_to_C_1" intLanes=":center_6_0 :center_6_1 :center_8_0 :center_9_0 :center_10_0 :center_11_0 :center_11_1 :center_16_0 :center_16_1 :center_18_0"/>
    <junction id=":center_21_0" type="internal" x="1000.00" y="1008.80" incLanes=":center_4_0 E_to_C_0 S_to_C_0 S_to_C_1 W_to_C_1" intLanes=":center_5_0 :center_11_0 :center_11_1 :center_18_0"/>
    <junction id=":center_22_0" type="internal" x="1003.73" y="1000.00" incLanes=":center_8_0 W_to_C_0 W_to_C_1" intLanes=":center_1_0 :center_1_1 :center_3_0 :center_11_0 :center_11_1 :center_13_0 :center_14_0 :center_15_0 :center_16_0 :center_16_1"/>
    <junction id=":center_23_0" type="internal" x="1008.80" y="1000.00" incLanes=":center_9_0 N_to_C_1 S_to_C_0 W_to_C_0 W_to_C_1" intLanes=":center_3_0 :center_10_0 :center_16_0 :center_16_1"/>
    <junction id=":center_24_0" type="internal" x="1000.00" y="996.27" incLanes=":center_13_0 N_to_C_0 N_to_C_1" intLanes=":center_0_0 :center_1_0 :center_1_1 :center_6_0 :center_6_1 :center_8_0 :center_16_0 :center_16_1 :center_18_0 :center_19_0"/>
    <junction id=":center_25_0" type="internal" x="1000.00" y="991.20" incLanes=":center_14_0 E_to_C_1 N_to_C_0 N_to_C_1 W_to_C_0" intLanes=":center_1_0 :center_1_1 :center_8_0 :center_15_0"/>
    <junction id=":center_26_0" type="internal" x="996.27" y="1000.00" incLanes=":center_18_0 E_to_C_0 E_to_C_1" intLanes=":center_1_0 :center_1_1 :center_3_0 :center_4_0 :center_5_0 :center_6_0 :center_6_1 :center_11_0 :center_11_1 :center_13_0"/>
    <junction id=":center_27_0" type="internal" x="991.20" y="1000.00" incLanes=":center_19_0 E_to_C_0 E_to_C_1 N_to_C_0 S_to_C_1" intLanes=":center_0_0 :center_6_0 :center_6_1 :center_13_0"/>

    <connection from="C_to_E" to="E_to_C" fromLane="1" toLane="1" via=":east_0_0" dir="t" state="M"/>
    <connection from="C_to_N" to="N_to_C" fromLane="1" toLane="1" via=":north_0_0" dir="t" state="M"/>
    <connection from="C_to_S" to="S_to_C" fromLane="1" toLane="1" via=":south_0_0" dir="t" state="M"/>
    <connection from="C_to_W" to="W_to_C" fromLane="1" toLane="1" via=":west_0_0" dir="t" state="M"/>
    <connection from="E_to_C" to="C_to_N" fromLane="0" toLane="0" via=":center_5_0" tl="center" linkIndex="5" dir="r" state="o"/>
    <connection from="E_to_C" to="C_to_W" fromLane="0" toLane="0" via=":center_6_0" tl="center" linkIndex="6" dir="s" state="o"/>
    <connection from="E_to_C" to="C_to_W" fromLane="1" toLane="1" via=":center_6_1" tl="center" linkIndex="7" dir="s" state="o"/>
    <connection from="E_to_C" to="C_to_S" fromLane="1" toLane="1" via=":center_8_0" tl="center" linkIndex="8" dir="l" state="o"/>
    <connection from="E_to_C" to="C_to_E" fromLane="1" toLane="1" via=":center_9_0" tl="center" linkIndex="9" dir="t" state="o"/>
    <connection from="N_to_C" to="C_to_W" fromLane="0" toLane="0" via=":center_0_0" tl="center" linkIndex="0" dir="r" state="O"/>
    <connection from="N_to_C" to="C_to_S" fromLane="0" toLane="0" via=":center_1_0" tl="center" linkIndex="1" dir="s" state="O"/>
    <connection from="N_to_C" to="C_to_S" fromLane="1" toLane="1" via=":center_1_1" tl="center" linkIndex="2" dir="s" state="O"/>
    <connection from="N_to_C" to="C_to_E" fromLane="1" toLane="1" via=":center_3_0" tl="center" linkIndex="3" dir="l" state="o"/>
    <connection from="N_to_C" to="C_to_N" fromLane="1" toLane="1" via=":center_4_0" tl="center" linkIndex="4" dir="t" state="o"/>
    <connection from="S_to_C" to="C_to_E" fromLane="0" toLane="0" via=":center_10_0" tl="center" linkIndex="10" dir="r" state="O"/>
    <connection from="S_to_C" to="C_to_N" fromLane="0" toLane="0" via=":center_11_0" tl="center" linkIndex="11" dir="s" state="O"/>
    <connection from="S_to_C" to="C_to_N" fromLane="1" toLane="1" via=":center_11_1" tl="center" linkIndex="12" dir="s" state="O"/>
    <connection from="S_to_C" to="C_to_W" fromLane="1" toLane="1" via=":center_13_0" tl="center" linkIndex="13" dir="l" state="o"/>
    <connection from="S_to_C" to="C_to_S" fromLane="1" toLane="1" via=":center_14_0" tl="center" linkIndex="14" dir="t" state="o"/>
    <connection from="W_to_C" to="C_to_S" fromLane="0" toLane="0" via=":center_15_0" tl="center" linkIndex="15" dir="r" state="o"/>
    <connection from="W_to_C" to="C_to_E" fromLane="0" toLane="0" via=":center_16_0" tl="center" linkIndex="16" dir="s" state="o"/>
    <connection from="W_to_C" to="C_to_E" fromLane="1" toLane="1" via=":center_16_1" tl="center" linkIndex="17" dir="s" state="o"/>
    <connection from="W_to_C" to="C_to_N" fromLane="1" toLane="1" via=":center_18_0" tl="center" linkIndex="18" dir="l" state="o"/>
    <connection from="W_to_C" to="C_to_W" fromLane="1" toLane="1" via=":center_19_0" tl="center" linkIndex="19" dir="t" state="o"/>

    <connection from=":center_0" to="C_to_W" fromLane="0" toLane="0" dir="r" state="M"/>
    <connection from=":center_1" to="C_to_S" fromLane="0" toLane="0" dir="s" state="M"/>
    <connection from=":center_1" to="C_to_S" fromLane="1" toLane="1" dir="s" state="M"/>
    <connection from=":center_3" to="C_to_E" fromLane="0" toLane="1" via=":center_20_0" dir="l" state="m"/>
    <connection from=":center_20" to="C_to_E" fromLane="0" toLane="1" dir="l" state="M"/>
    <connection from=":center_4" to="C_to_N" fromLane="0" toLane="1" via=":center_21_0" dir="t" state="m"/>
    <connection from=":center_21" to="C_to_N" fromLane="0" toLane="1" dir="t" state="M"/>
    <connection from=":center_5" to="C_to_N" fromLane="0" toLane="0" dir="r" state="M"/>
    <connection from=":center_6" to="C_to_W" fromLane="0" toLane="0" dir="s" state="M"/>
    <connection from=":center_6" to="C_to_W" fromLane="1" toLane="1" dir="s" state="M"/>
    <connection from=":center_8" to="C_to_S" fromLane="0" toLane="1" via=":center_22_0" dir="l" state="m"/>
    <connection from=":center_22" to="C_to_S" fromLane="0" toLane="1" dir="l" state="M"/>
    <connection from=":center_9" to="C_to_E" fromLane="0" toLane="1" via=":center_23_0" dir="t" state="m"/>
    <connection from=":center_23" to="C_to_E" fromLane="0" toLane="1" dir="t" state="M"/>
    <connection from=":center_10" to="C_to_E" fromLane="0" toLane="0" dir="r" state="M"/>
    <connection from=":center_11" to="C_to_N" fromLane="0" toLane="0" dir="s" state="M"/>
    <connection from=":center_11" to="C_to_N" fromLane="1" toLane="1" dir="s" state="M"/>
    <connection from=":center_13" to="C_to_W" fromLane="0" toLane="1" via=":center_24_0" dir="l" state="m"/>
    <connection from=":center_24" to="C_to_W" fromLane="0" toLane="1" dir="l" state="M"/>
    <connection from=":center_14" to="C_to_S" fromLane="0" toLane="1" via=":center_25_0" dir="t" state="m"/>
    <connection from=":center_25" to="C_to_S" fromLane="0" toLane="1" dir="t" state="M"/>
    <connection from=":center_15" to="C_to_S" fromLane="0" toLane="0" dir="r" state="M"/>
    <connection from=":center_16" to="C_to_E" fromLane="0" toLane="0" dir="s" state="M"/>
    <connection from=":center_16" to="C_to_E" fromLane="1" toLane="1" dir="s" state="M"/>
    <connection from=":center_18" to="C_to_N" fromLane="0" toLane="1" via=":center_26_0" dir="l" state="m"/>
    <connection from=":center_26" to="C_to_N" fromLane="0" toLane="1" dir="l" state="M"/>
    <connection from=":center_19" to="C_to_W" fromLane="0" toLane="1" via=":center_27_0" dir="t" state="m"/>
    <connection from=":center_27" to="C_to_W" fromLane="0" toLane="1" dir="t" state="M"/>
    <connection from=":east_0" to="E_to_C" fromLane="0" toLane="1" dir="t" state="M"/>
    <connection from=":north_0" to="N_to_C" fromLane="0" toLane="1" dir="t" state="M"/>
    <connection from=":south_0" to="S_to_C" fromLane="0" toLane="1" dir="t" state="M"/>
    <connection from=":west_0" to="W_to_C" fromLane="0" toLane="1" dir="t" state="M"/>

</net>
