<nodes>
    <node id="center" x="0" y="0" type="traffic_light"/>
    <node id="north"  x="0" y="1000" />
    <node id="south"  x="0" y="-1000" />
    <node id="east"   x="1000" y="0" />
    <node id="west"   x="-1000" y="0" />
</nodes>