<routes>
    <!-- Simple generic vehicle type -->
    <!-- <vType id="car" accel="2.6" decel="4.5" length="5.0" maxSpeed="17.9"/> -->

    <vehicle id="1" type="vehicle.toyota.prius" depart="0.00" departLane="random" departPos="base">
        <route edges="-29.0.00 39.0.00 -48.0.00 19.0.00"/>
    </vehicle>
    <vehicle id="2" type="vehicle.toyota.prius" depart="0.00" departLane="random" departPos="base">
        <route edges="-29.0.00 -0.0.00 -1.0.00 -2.0.00"/>
    </vehicle>

    <vehicle id="3" type="vehicle.toyota.prius" depart="0.00" departLane="random" departPos="base">
        <route edges="-39.0.00 -0.0.00 -1.0.00 -2.0.00"/>
    </vehicle>
    <vehicle id="4" type="vehicle.toyota.prius" depart="0.00" departLane="random" departPos="base">
        <route edges="-39.0.00 25.0.00 15.0.00 13.0.00"/>
    </vehicle>

    <vehicle id="5" type="vehicle.toyota.prius" depart="0.00" departLane="random" departPos="base">
        <route edges="-16.0.00 -0.0.00 -1.0.00 -2.0.00"/>
    </vehicle>
    <vehicle id="6" type="vehicle.toyota.prius" depart="0.00" departLane="random" departPos="base">
        <route edges="-16.0.00 -26.0.00 28.0.00 27.0.00"/>
    </vehicle>

    <vehicle id="7" type="vehicle.toyota.prius" depart="0.00" departLane="random" departPos="base">
        <route edges="0.0.00 39.0.00 -48.0.00 19.0.00"/>
    </vehicle>
    <vehicle id="8" type="vehicle.toyota.prius" depart="0.00" departLane="random" departPos="base">
        <route edges="0.0.00 -26.0.00 28.0.00 27.0.00"/>
    </vehicle>
</routes>
